LTspice 26.0.2 for Windows
Circuit: C:\Users\Public\Documents\Altium\NEXUS-connectors\HE-PCB\xtalk_sim\xtalk_ap_done_tr2.cir
Start Time: Tue Jul 21 13:14:26 2026
solver = Normal
Maximum thread count: 20
tnom = 27
temp = 27
method = trap
.OP point found by inspection.
.OP point found by inspection.
Total elapsed time: 0.368 seconds.

Files loaded:
C:\Users\Public\Documents\Altium\NEXUS-connectors\HE-PCB\xtalk_sim\xtalk_ap_done_tr2.cir

aggr_swing: PP(V(a1_0))=1.80001374323 FROM 0 TO 1.6e-07
next_pos: MAX(V(v_0))=0.0422803908587 FROM 0 TO 1.6e-07
next_neg: MIN(V(v_0))=-0.0422488413751 FROM 0 TO 1.6e-07
next_pk: MAX(abs(V(v_0)))=0.0422803908587 FROM 0 TO 1.6e-07
fext_pk: MAX(abs(V(v_40)))=0.0462418496609 FROM 0 TO 1.6e-07
