LTspice 26.0.2 for Windows
Circuit: C:\Users\Public\Documents\Altium\NEXUS-connectors\HE-PCB\xtalk_sim\xtalk_ap_done_tr1.cir
Start Time: Sat Jul  4 14:30:15 2026
solver = Normal
Maximum thread count: 20
tnom = 27
temp = 27
method = trap
.OP point found by inspection.
.OP point found by inspection.
Total elapsed time: 0.306 seconds.

Files loaded:
C:\Users\Public\Documents\Altium\NEXUS-connectors\HE-PCB\xtalk_sim\xtalk_ap_done_tr1.cir

aggr_swing: PP(V(a1_0))=1.79998242855 FROM 0 TO 4e-08
next_pos: MAX(V(v_0))=0.0474054440856 FROM 0 TO 4e-08
next_neg: MIN(V(v_0))=-0.0474204830825 FROM 0 TO 4e-08
next_pk: MAX(abs(V(v_0)))=0.0474204830825 FROM 0 TO 4e-08
fext_pk: MAX(abs(V(v_40)))=0.0834292471409 FROM 0 TO 4e-08
