LTspice 26.0.2 for Windows
Circuit: C:\Users\Public\Documents\Altium\NEXUS-connectors\HE-PCB\xtalk_sim\xtalk_ap_done_tr0.25.cir
Start Time: Sat Jul  4 14:30:13 2026
solver = Normal
Maximum thread count: 20
tnom = 27
temp = 27
method = trap
.OP point found by inspection.
.OP point found by inspection.
Total elapsed time: 0.444 seconds.

Files loaded:
C:\Users\Public\Documents\Altium\NEXUS-connectors\HE-PCB\xtalk_sim\xtalk_ap_done_tr0.25.cir

aggr_swing: PP(V(a1_0))=1.79999613762 FROM 0 TO 4e-08
next_pos: MAX(V(v_0))=0.0638136863708 FROM 0 TO 4e-08
next_neg: MIN(V(v_0))=-0.0638212487102 FROM 0 TO 4e-08
next_pk: MAX(abs(V(v_0)))=0.0638212487102 FROM 0 TO 4e-08
fext_pk: MAX(abs(V(v_40)))=0.111993595958 FROM 0 TO 4e-08
